# Title
# Created by GaussView 6.0.16
#

#
#

@<TRIPOS>MOLECULE
Molecule Name
31 29
SMALL
NO_CHARGES


@<TRIPOS>ATOM
1 C1    -3.3744     1.9698    -0.0516 C
2 H2    -3.0177     2.4742     0.8221 H
3 H3    -3.0177     2.4742    -0.9252 H
4 H4    -4.4444     1.9698    -0.0516 H
5 C5    -2.8611     0.5178    -0.0516 C
6 H6    -3.2177     0.0134     0.8221 H
7 H7    -3.2177     0.0134    -0.9252 H
8 C8    -1.3211     0.5178    -0.0516 C
9 H9    -0.9644     1.0205    -0.9262 H
10 H10    -0.9644     1.0239     0.8211 H
11 C11    -0.8078    -0.9341    -0.0488 C
12 H12    -1.1648    -1.4403    -0.9212 H
13 H13     0.2622    -0.9341    -0.0492 H
14 H14    -1.1641    -1.4367     0.8261 H
15 C15    -3.9059    -4.5609     0.1987 C
16 H16    -3.5492    -4.0565     1.0723 H
17 H17    -3.5492    -4.0565    -0.6750 H
18 H18    -4.9759    -4.5608     0.1987 H
19 C19    -3.3926    -6.0128     0.1987 C
20 H20    -3.7493    -6.5172     1.0723 H
21 H21    -3.7493    -6.5172    -0.6750 H
22 C22    -1.8526    -6.0128     0.1987 C
23 H23    -1.4959    -5.5101    -0.6760 H
24 H24    -1.4959    -5.5067     1.0713 H
25 C25    -1.3393    -7.4647     0.2015 C
26 H26    -1.6963    -7.9710    -0.6710 H
27 H27    -1.6956    -7.9673     1.0763 H
28 C28     0.2007    -7.4648     0.2008 C
29 H29     0.5578    -6.9585     1.0733 H
30 H30     0.5574    -8.4736     0.2028 H
31 H31     0.5570    -6.9622    -0.6740 H
@<TRIPOS>BOND
1 1 2 1
2 1 3 1
3 1 4 1
4 1 5 1
5 5 6 1
6 5 7 1
7 5 8 1
8 8 9 1
9 8 10 1
10 8 11 1
11 11 12 1
12 11 13 1
13 11 14 1
14 15 16 1
15 15 17 1
16 15 18 1
17 15 19 1
18 19 20 1
19 19 21 1
20 19 22 1
21 22 23 1
22 22 24 1
23 22 25 1
24 25 26 1
25 25 27 1
26 25 28 1
27 28 29 1
28 28 30 1
29 28 31 1
