@<TRIPOS>MOLECULE
*****
 85 91 0 0 0
SMALL
GASTEIGER

@<TRIPOS>ATOM
      1 O           2.5182    0.3880    1.4811 O.2     1  UNL1       -0.2957
      2 C           2.2087    1.5441    1.2242 C.2     1  UNL1        0.1502
      3 C           3.1166    2.4578    0.4978 C.ar    1  UNL1        0.0142
      4 C           4.3826    2.0267    0.0833 C.ar    1  UNL1       -0.0508
      5 C           5.2363    2.9024   -0.6078 C.ar    1  UNL1       -0.0490
      6 C           2.6989    3.7633    0.2381 C.ar    1  UNL1       -0.0508
      7 C           3.5547    4.6378   -0.4437 C.ar    1  UNL1       -0.0490
      8 C           4.8210    4.2130   -0.8793 C.ar    1  UNL1        0.0371
      9 C           5.6861    5.2183   -1.5737 C.2     1  UNL1        0.2483
     10 O           5.5946    6.3884   -1.2147 O.2     1  UNL1       -0.2699
     11 N           6.4616    4.7466   -2.6216 N.am    1  UNL1       -0.2815
     12 C           7.2900    5.5255   -3.4731 C.ar    1  UNL1        0.0337
     13 C           7.6642    6.8456   -3.2190 C.ar    1  UNL1       -0.0398
     14 C           8.4637    7.5725   -4.1334 C.ar    1  UNL1       -0.0479
     15 C           7.7493    4.9302   -4.6503 C.ar    1  UNL1       -0.0398
     16 C           8.5380    5.6526   -5.5625 C.ar    1  UNL1       -0.0479
     17 C           8.9163    6.9841   -5.3231 C.ar    1  UNL1        0.0371
     18 C           9.7482    7.6743   -6.3806 C.2     1  UNL1        0.2483
     19 O           9.9234    7.0797   -7.4417 O.2     1  UNL1       -0.2699
     20 N          10.2983    8.9124   -6.0772 N.am    1  UNL1       -0.2815
     21 C          11.1267    9.7094   -6.9185 C.ar    1  UNL1        0.0338
     22 C          11.3296    9.5047   -8.2874 C.ar    1  UNL1       -0.0387
     23 C          12.1940   10.3412   -9.0388 C.ar    1  UNL1       -0.0387
     24 C          11.7896   10.7850   -6.3269 C.ar    1  UNL1       -0.0387
     25 C          12.6618   11.6016   -7.0694 C.ar    1  UNL1       -0.0387
     26 C          12.8965   11.3880   -8.4324 C.ar    1  UNL1        0.0338
     27 N          13.7992   12.1889   -9.2076 N.am    1  UNL1       -0.2815
     28 C          14.7780   13.0086   -8.6537 C.2     1  UNL1        0.2483
     29 O          15.0227   13.0675   -7.4491 O.2     1  UNL1       -0.2699
     30 C          15.6447   13.8686   -9.5298 C.ar    1  UNL1        0.0371
     31 C          15.3034   14.3894  -10.7858 C.ar    1  UNL1       -0.0489
     32 C          16.1427   15.3492  -11.4232 C.ar    1  UNL1       -0.0489
     33 C          16.8533   14.2871   -8.9543 C.ar    1  UNL1       -0.0489
     34 C          17.6743   15.2268   -9.5796 C.ar    1  UNL1       -0.0489
     35 C          17.3291   15.7965  -10.8134 C.ar    1  UNL1        0.0371
     36 C          18.2846   16.8499  -11.3265 C.2     1  UNL1        0.2483
     37 O          19.3184   17.0204  -10.6842 O.2     1  UNL1       -0.2699
     38 N          17.9368   17.6032  -12.4401 N.am    1  UNL1       -0.2815
     39 C          18.7219   18.6596  -12.9965 C.ar    1  UNL1        0.0337
     40 C          20.0595   18.9242  -12.6658 C.ar    1  UNL1       -0.0398
     41 C          20.7739   20.0019  -13.2373 C.ar    1  UNL1       -0.0494
     42 C          18.1149   19.4990  -13.9306 C.ar    1  UNL1       -0.0398
     43 C          18.8218   20.5771  -14.4925 C.ar    1  UNL1       -0.0494
     44 C          20.1692   20.8376  -14.1732 C.ar    1  UNL1        0.0174
     45 C          20.8979   21.9257  -14.8551 C.ar    1  UNL1        0.1393
     46 N          21.9510   22.6381  -14.4693 N.ar    1  UNL1       -0.2277
     47 C          22.1538   23.5924  -15.4610 C.ar    1  UNL1        0.0912
     48 C          23.0974   24.6388  -15.5886 C.ar    1  UNL1       -0.0135
     49 C          21.2303   23.4293  -16.4800 C.ar    1  UNL1        0.0666
     50 N          20.5221   22.3255  -16.1145 N.ar    1  UNL1       -0.3379
     51 C          21.1403   24.2404  -17.6056 C.ar    1  UNL1       -0.0345
     52 C          22.0553   25.2904  -17.6869 C.ar    1  UNL1       -0.0390
     53 C          23.0066   25.5226  -16.6856 C.ar    1  UNL1        0.0267
     54 N          23.9965   26.4954  -16.9132 N.pl3   1  UNL1       -0.3579
     55 H           1.2284    1.9552    1.5223 H       1  UNL1        0.1081
     56 H           4.7103    1.0128    0.3117 H       1  UNL1        0.0625
     57 H           6.2281    2.5565   -0.8864 H       1  UNL1        0.0625
     58 H           1.7242    4.1193    0.5649 H       1  UNL1        0.0625
     59 H           3.2325    5.6602   -0.6316 H       1  UNL1        0.0625
     60 H           6.3206    3.7833   -2.9003 H       1  UNL1        0.1551
     61 H           7.3547    7.3531   -2.3089 H       1  UNL1        0.0636
     62 H           8.7011    8.6047   -3.8831 H       1  UNL1        0.0626
     63 H           7.4827    3.9064   -4.9006 H       1  UNL1        0.0636
     64 H           8.8529    5.1594   -6.4810 H       1  UNL1        0.0626
     65 H          10.2010    9.2499   -5.1308 H       1  UNL1        0.1551
     66 H          10.8215    8.6987   -8.8104 H       1  UNL1        0.0637
     67 H          12.3198   10.1248  -10.0971 H       1  UNL1        0.0637
     68 H          11.6706   11.0031   -5.2688 H       1  UNL1        0.0637
     69 H          13.1413   12.4141   -6.5326 H       1  UNL1        0.0637
     70 H          13.8157   12.0245  -10.2044 H       1  UNL1        0.1551
     71 H          14.3695   14.1072  -11.2653 H       1  UNL1        0.0625
     72 H          15.8333   15.7386  -12.3901 H       1  UNL1        0.0625
     73 H          17.1586   13.9105   -7.9769 H       1  UNL1        0.0625
     74 H          18.5839   15.5334   -9.0634 H       1  UNL1        0.0625
     75 H          17.0105   17.4880  -12.8242 H       1  UNL1        0.1551
     76 H          20.6023   18.2930  -11.9679 H       1  UNL1        0.0636
     77 H          21.8119   20.1620  -12.9493 H       1  UNL1        0.0625
     78 H          17.0789   19.3539  -14.2245 H       1  UNL1        0.0636
     79 H          18.2821   21.2244  -15.1801 H       1  UNL1        0.0625
     80 H          23.8694   24.7599  -14.8373 H       1  UNL1        0.0658
     81 H          19.8134   21.8795  -16.6722 H       1  UNL1        0.1674
     82 H          20.4043   24.0685  -18.3813 H       1  UNL1        0.0639
     83 H          22.0195   25.9359  -18.5621 H       1  UNL1        0.0637
     84 H          23.6875   27.2526  -17.5147 H       1  UNL1        0.1423
     85 H          24.4495   26.8329  -16.0685 H       1  UNL1        0.1423
@<TRIPOS>BOND
     1     1     2    2
     2     2     3    1
     3     3     4   ar
     4     4     5   ar
     5     3     6   ar
     6     6     7   ar
     7     7     8   ar
     8     5     8   ar
     9     8     9    1
    10     9    10    2
    11     9    11   am
    12    11    12    1
    13    12    13   ar
    14    13    14   ar
    15    12    15   ar
    16    15    16   ar
    17    16    17   ar
    18    14    17   ar
    19    17    18    1
    20    18    19    2
    21    18    20   am
    22    20    21    1
    23    21    22   ar
    24    22    23   ar
    25    21    24   ar
    26    24    25   ar
    27    25    26   ar
    28    23    26   ar
    29    26    27    1
    30    27    28   am
    31    28    29    2
    32    28    30    1
    33    30    31   ar
    34    31    32   ar
    35    30    33   ar
    36    33    34   ar
    37    34    35   ar
    38    32    35   ar
    39    35    36    1
    40    36    37    2
    41    36    38   am
    42    38    39    1
    43    39    40   ar
    44    40    41   ar
    45    39    42   ar
    46    42    43   ar
    47    43    44   ar
    48    41    44   ar
    49    44    45    1
    50    45    46   ar
    51    46    47   ar
    52    47    48   ar
    53    47    49   ar
    54    49    50   ar
    55    45    50   ar
    56    49    51   ar
    57    51    52   ar
    58    52    53   ar
    59    48    53   ar
    60    53    54    1
    61     2    55    1
    62     4    56    1
    63     5    57    1
    64     6    58    1
    65     7    59    1
    66    11    60    1
    67    13    61    1
    68    14    62    1
    69    15    63    1
    70    16    64    1
    71    20    65    1
    72    22    66    1
    73    23    67    1
    74    24    68    1
    75    25    69    1
    76    27    70    1
    77    31    71    1
    78    32    72    1
    79    33    73    1
    80    34    74    1
    81    38    75    1
    82    40    76    1
    83    41    77    1
    84    42    78    1
    85    43    79    1
    86    48    80    1
    87    50    81    1
    88    51    82    1
    89    52    83    1
    90    54    84    1
    91    54    85    1
